# generated using pymatgen
data_LaTiO3
_symmetry_space_group_name_H-M   Pnma
_cell_length_a   5.67329700
_cell_length_b   7.93828800
_cell_length_c   5.56856000
_cell_angle_alpha   90.00000000
_cell_angle_beta   90.00000000
_cell_angle_gamma   90.00000000
_symmetry_Int_Tables_number   62
_chemical_formula_structural   LaTiO3
_chemical_formula_sum   'La4 Ti4 O12'
_cell_volume   250.78714659
_cell_formula_units_Z   4
loop_
 _symmetry_equiv_pos_site_id
 _symmetry_equiv_pos_as_xyz
  1  'x, y, z'
  2  '-x, -y, -z'
  3  '-x+1/2, -y, z+1/2'
  4  'x+1/2, y, -z+1/2'
  5  'x+1/2, -y+1/2, -z+1/2'
  6  '-x+1/2, y+1/2, z+1/2'
  7  '-x, y+1/2, -z'
  8  'x, -y+1/2, z'
loop_
 _atom_type_symbol
 _atom_type_oxidation_number
  La3+  3.0
  Ti3+  3.0
  O2-  -2.0
loop_
 _atom_site_type_symbol
 _atom_site_label
 _atom_site_symmetry_multiplicity
 _atom_site_fract_x
 _atom_site_fract_y
 _atom_site_fract_z
 _atom_site_occupancy
  La3+  La0  4  0.04736900  0.25000000  0.99244200  1
  Ti3+  Ti1  4  0.00000000  0.00000000  0.50000000  1
  O2-  O2  8  0.21078200  0.53684400  0.20851700  1
  O2-  O3  4  0.01326900  0.75000000  0.56855700  1
