# generated using pymatgen
data_LiEuTiO4
_symmetry_space_group_name_H-M   'P 1'
_cell_length_a   5.30601000
_cell_length_b   5.35771606
_cell_length_c   11.99035913
_cell_angle_alpha   90.00000000
_cell_angle_beta   90.00000000
_cell_angle_gamma   90.00000000
_symmetry_Int_Tables_number   1
_chemical_formula_structural   LiEuTiO4
_chemical_formula_sum   'Li4 Eu4 Ti4 O16'
_cell_volume   340.86306848
_cell_formula_units_Z   4
loop_
 _symmetry_equiv_pos_site_id
 _symmetry_equiv_pos_as_xyz
  1  'x, y, z'
loop_
 _atom_type_symbol
 _atom_type_oxidation_number
  Li+  1.0
  Eu3+  3.0
  Ti4+  4.0
  O2-  -2.0
loop_
 _atom_site_type_symbol
 _atom_site_label
 _atom_site_symmetry_multiplicity
 _atom_site_fract_x
 _atom_site_fract_y
 _atom_site_fract_z
 _atom_site_occupancy
  Li+  Li0  1  0.00000000  0.25000000  0.99060100  1
  Li+  Li1  1  0.50000000  0.25000000  0.99060100  1
  Li+  Li2  1  0.50000000  0.75000000  0.00939900  1
  Li+  Li3  1  0.00000000  0.75000000  0.00939900  1
  Eu3+  Eu4  1  0.25000000  0.01877000  0.61541000  1
  Eu3+  Eu5  1  0.75000000  0.98123000  0.38459000  1
  Eu3+  Eu6  1  0.75000000  0.48123000  0.61541000  1
  Eu3+  Eu7  1  0.25000000  0.51877000  0.38459000  1
  Ti4+  Ti8  1  0.25000000  0.00585000  0.21026500  1
  Ti4+  Ti9  1  0.75000000  0.49415000  0.21026500  1
  Ti4+  Ti10  1  0.75000000  0.99415000  0.78973500  1
  Ti4+  Ti11  1  0.25000000  0.50585000  0.78973500  1
  O2-  O12  1  0.50000000  0.75000000  0.24163200  1
  O2-  O13  1  0.00000000  0.75000000  0.74210000  1
  O2-  O14  1  0.50000000  0.75000000  0.74210000  1
  O2-  O15  1  0.25000000  0.45437500  0.57280700  1
  O2-  O16  1  0.75000000  0.04562500  0.57280700  1
  O2-  O17  1  0.25000000  0.01112800  0.06084000  1
  O2-  O18  1  0.00000000  0.75000000  0.24163200  1
  O2-  O19  1  0.00000000  0.25000000  0.75836800  1
  O2-  O20  1  0.75000000  0.54562500  0.42719300  1
  O2-  O21  1  0.25000000  0.51112800  0.93916000  1
  O2-  O22  1  0.00000000  0.25000000  0.25790000  1
  O2-  O23  1  0.75000000  0.98887200  0.93916000  1
  O2-  O24  1  0.50000000  0.25000000  0.25790000  1
  O2-  O25  1  0.25000000  0.95437500  0.42719300  1
  O2-  O26  1  0.50000000  0.25000000  0.75836800  1
  O2-  O27  1  0.75000000  0.48887200  0.06084000  1
